!!!!!!!!!!!!!!!!!!!!!!!!!!!!!!!!!!!!!!!!!!!!!!!!
!!!  Reaction Design C2_NOx mechanism 2008   !!!
!!!!!!!!!!!!!!!!!!!!!!!!!!!!!!!!!!!!!!!!!!!!!!!!
!
!Gas Input File Extracted From Reaction Design Mechanism Database
!
!Based on the mechanism by 
! Naik, C. V., W. Pitz, et al. (2005) "Detailed Chemical Kinetic Modeling of Surrogate Fuels for Gasoline and Application to an HCCI Engine" SAE 2005-01-3741
!
!Updates included from
! Naik, C. V. and A. M. Dean (2006) "Detailed Kinetic Modeling of Ethane Oxidation" Combust. Flame 145: 16-37
! O'Conaire, M., H. J. Curran, et al. (2004) "A Comprehensive Modeling Study of Hydrogen Oxidation" Int. J. Chem. Kinet. 36: 603-622.
! Li, J., Z. Zhao, et al. (2007) "A Comprehensive Kinetic Mechanism for CO, CH2O, and CH3OH Combustion" Int. J. Chem. Kinet. 39: 109-136.
! Petersen, E. L., D. M. Kalitan, et al. (2007) "Methane/Propane Oxidation at High Pressures: Experimental and Detailed Chemical Kinetic Modeling" Proc. Comb. Inst. 31: 447-454.
! Smith, G. P., D. M. Golden, et al. "GRI-Mech 3.0" from http://www.me.berkeley.edu/gri_mech
! Rasmussen, C. L., A. E. Rasmussen, et al. (2008) "Sensitizing Effects of NOx on CH4 Oxidation at High Pressure" Comb. Flame 154(3): 529-545
! Dagaut, P., P. Glarborg, et al. (2008) "The Oxidation of Hydrogen Cyanide and Related Chemistry" Progress in Energy and Combustion Science 34: 1-46
!
!Naik C. V. updated C0-C1 and N2 species transport from Dow based on ab initio calculations
!Base transport data from
! Curran, H. J., Pitz, W. J., and Westbrook, C. K., 2002, Review and release date: May 19, 2004

ELEMENTS
H C O N
END

SPECIES
H H2 O O2 OH H2O N2 CO HCO CO2 CH3 CH4 HO2 H2O2 CH2O CH3O
C2H6 C2H4 C2H5 CH2 CH C2H C2H2 C2H3 CH3OH CH2OH CH2CO HCCO C2H5OH PC2H4OH
SC2H4OH CH3CO CH2CHO CH3CHO C2H5O CH3O2 C2H5O2 CH3O2H C2H5O2H C2H3O1-2 CH3CO2
C2H4O1-2 C2H4O2H O2C2H4OH CH3CO3 CH3CO3H HO2CHO O2CHO OCHO CH2(S) HOCH2O
HOCHO CH3OCO HCOCJ*O CJ*C*O HCOHCO DHCO2J C*OCJOH C H2CC HCCOH C2O N
NH NH2 NH3 NNH NO NO2 HNO CN HCN H2CN HCNO
HOCN HNCO NCO N2O HNC HON HONO H2NO NCCN
NCN HCNH HNOH NO3 HONO2 CH3NO CH3NO2 CH3ONO2 CH3ONO
HNO2 CH2NO2 C2H5NO2 C2H5ONO C2H5ONO2 C2H3NO2 HCNN 
END

THERMO ALL
300.000  1000.000  5000.000
! [_ SMILES="[H]" _]
! [_ INCHI="INCHI=1/H" _]
! [_ CAS="12385-13-6" _]
H                 -THERMH   1               G    300.00   5000.00 1000.00      1
  2.50104422E+0  0.00000000E+0  0.00000000E+0  0.00000000E+0  0.00000000E+0    2
  2.54747466E+4 -4.65341317E-1  2.50104422E+0  0.00000000E+0  0.00000000E+0    3
  0.00000000E+0  0.00000000E+0  2.54747466E+4 -4.65341317E-1                   4
! [_ SMILES="[H][H]" _]
! [_ INCHI="INCHI=1/H2/H1H" _]
! [_ CAS="1333-74-0" _]
H2                121286H   2               G    300.00   5000.00 1000.00      1
  2.99142300E+0  7.00064400E-4 -5.63382900E-8-9.23157800E-12 1.58275200E-15    2
 -8.35034000E+2 -1.35511000E+0  3.29812400E+0  8.24944200E-4 -8.14301500E-7    3
-9.47543400E-11 4.13487200E-13 -1.01252100E+3 -3.29409400E+0                   4
! [_ SMILES="[O]" _]
! [_ INCHI="INCHI=1/O" _]
! [_ CAS="17778-80-2" _]
O                 120186O   1               G    300.00   5000.00 1000.00      1
  2.54206000E+0 -2.75506200E-5 -3.10280300E-9 4.55106700E-12-4.36805200E-16    2
  2.92308000E+4  4.92030800E+0  2.94642900E+0 -1.63816600E-3  2.42103200E-6    3
 -1.60284300E-9 3.89069600E-13  2.91476400E+4  2.96399500E+0                   4
! [_ SMILES="O=O" _]
! [_ INCHI="INCHI=1/O2/C1-2" _]
! [_ CAS="7782-44-7" _]
O2                121386O   2               G    300.00   5000.00 1000.00      1
  3.69757800E+0  6.13519700E-4 -1.25884200E-7 1.77528100E-11-1.13643500E-15    2
 -1.23393000E+3  3.18916600E+0  3.21293600E+0  1.12748600E-3 -5.75615000E-7    3
  1.31387700E-9-8.76855400E-13 -1.00524900E+3  6.03473800E+0                   4
! [_ SMILES="[OH]" _]
! [_ INCHI="INCHI=1/HO/H1H" _]
! [_ CAS="3352-57-6" _]
OH                2004  O   1H   1          G    300.00   5000.00 1373.00      1
  2.89080142E+0  1.03580697E-3 -2.73888804E-7 3.14233602E-11-1.28582885E-15    2
  3.68169875E+3  5.55206679E+0  3.51661128E+0 -2.17634829E-4  6.28785743E-7    3
-2.42056538E-10 2.72367648E-14  3.44025283E+3  2.11149893E+0                   4
! [_ SMILES="O" _]
! [_ INCHI="INCHI=1/H2O/H1H2" _]
! [_ CAS="7732-18-5" _]
H2O               -20387H   2O   1          G    300.00   5000.00 1000.00      1
  2.67214600E+0  3.05629300E-3 -8.73026000E-7 1.20099600E-10-6.39161800E-15    2
 -2.98992100E+4  6.86281700E+0  3.38684200E+0  3.47498200E-3 -6.35469600E-6    3
  6.96858100E-9-2.50658800E-12 -3.02081100E+4  2.59023300E+0                   4
! [_ SMILES="N#N" _]
! [_ INCHI="INCHI=1/N2/C1-2" _]
! [_ CAS="7727-37-9" _]
N2                121286N   2               G    300.00   5000.00 1000.00      1
  2.92664000E+0  1.48797700E-3 -5.68476100E-7 1.00970400E-10-6.75335100E-15    2
 -9.22797700E+2  5.98052800E+0  3.29867700E+0  1.40824000E-3 -3.96322200E-6    3
  5.64151500E-9-2.44485500E-12 -1.02090000E+3  3.95037200E+0                   4
! [_ SMILES="[C]=O" _]
! [_ INCHI="INCHI=1/CO/C1-2" _]
! [_ CAS="630-08-0" _]
CO                121286C   1O   1          G    300.00   5000.00 1000.00      1
  3.02507800E+0  1.44268900E-3 -5.63082800E-7 1.01858100E-10-6.91095200E-15    2
 -1.42683500E+4  6.10821800E+0  3.26245200E+0  1.51194100E-3 -3.88175500E-6    3
  5.58194400E-9-2.47495100E-12 -1.43105400E+4  4.84889700E+0                   4
! [_ SMILES="[CH]=O" _]
! [_ INCHI="INCHI=1/CHO/C1-2/H1H" _]
! [_ CAS="2597-44-6" _]
HCO               121286O   1H   1C   1     G    300.00   5000.00 1000.00      1
  3.55727100E+0  3.34557300E-3 -1.33500600E-6 2.47057300E-10-1.71385100E-14    2
  3.91632400E+3  5.55229900E+0  2.89833000E+0  6.19914700E-3 -9.62308400E-6    3
  1.08982500E-8-4.57488500E-12  4.15992200E+3  8.98361400E+0                   4
! [_ SMILES="O=C=O" _]
! [_ INCHI="INCHI=1/CO2/C2-1-3" _]
! [_ CAS="124-38-9" _]
CO2               121286C   1O   2          G    300.00   5000.00 1000.00      1
  4.45362300E+0  3.14016900E-3 -1.27841100E-6 2.39399700E-10-1.66903300E-14    2
 -4.89669600E+4 -9.55395900E-1  2.27572500E+0  9.92207200E-3 -1.04091100E-5    3
  6.86668700E-9-2.11728000E-12 -4.83731400E+4  1.01884900E+1                   4
! [_ SMILES="[CH3]" _]
! [_ INCHI="INCHI=1/CH3/H1H3" _]
! [_ CAS="2229-07-4" _]
CH3               121286H   3C   1          G    300.00   5000.00 1000.00      1
  2.84405200E+0  6.13797400E-3 -2.23034500E-6 3.78516100E-10-2.45215900E-14    2
  1.64378100E+4  5.45269700E+0  2.43044300E+0  1.11241000E-2 -1.68022000E-5    3
  1.62182900E-8-5.86495300E-12  1.64237800E+4  6.78979400E+0                   4
! [_ SMILES="C" _]
! [_ INCHI="INCHI=1/CH4/H1H4" _]
! [_ CAS="74-82-8" _]
CH4               121286H   4C   1          G    300.00   5000.00 1000.00      1
  1.68347900E+0  1.02372400E-2 -3.87512900E-6 6.78558500E-10-4.50342300E-14    2
 -1.00807900E+4  9.62339500E+0  7.78741500E-1  1.74766800E-2 -2.78340900E-5    3
  3.04970800E-8-1.22393100E-11 -9.82522900E+3  1.37221900E+1                   4
! [_ SMILES="[O]O" _]
! [_ INCHI="INCHI=1/HO2/C1-2/H1H" _]
! [_ CAS="3170-83-0" _]
HO2               2004  H   1O   2          G    300.00   5000.00 1426.00      1
  4.73847074E+0  1.60455274E-3 -5.79128791E-7 9.32005029E-11-5.54436074E-15    2
 -2.94296200E+2 -5.34138593E-1  3.32583730E+0  2.75201316E-3  1.17476160E-6    3
 -2.08439503E-9 6.04923316E-13  3.89351744E+2  7.77951112E+0                   4
! [_ SMILES="OO" _]
! [_ INCHI="INCHI=1/H2O2/C1-2/H1-2H" _]
! [_ CAS="7722-84-1" _]
H2O2              120186H   2O   2          G    300.00   5000.00 1000.00      1
  4.57316700E+0  4.33613600E-3 -1.47468900E-6 2.34890400E-10-1.43165400E-14    2
 -1.80069600E+4  5.01137000E-1  3.38875400E+0  6.56922600E-3 -1.48501300E-7    3
 -4.62580600E-9 2.47151500E-12 -1.76631500E+4  6.78536300E+0                   4
! [_ SMILES="C=O" _]
! [_ INCHI="INCHI=1/CH2O/C1-2/H1H2" _]
! [_ CAS="50-00-0" _]
CH2O              121286O   1H   2C   1     G    300.00   5000.00 1000.00      1
  2.99560600E+0  6.68132100E-3 -2.62895500E-6 4.73715300E-10-3.21251700E-14    2
 -1.53203700E+4  6.91257200E+0  1.65273100E+0  1.26314400E-2 -1.88816800E-5    3
  2.05003100E-8-8.41323700E-12 -1.48654000E+4  1.37848200E+1                   4
! [_ SMILES="C[O]" _]
! [_ INCHI="INCHI=1/CH3O/C1-2/H1H3" _]
! [_ CAS="2143-68-2" _]
CH3O              121686O   1H   3C   1     G    300.00   3000.00 1000.00      1
  3.77080000E+0  7.87149700E-3 -2.65638400E-6 3.94443100E-10-2.11261600E-14    2
  1.27832500E+2  2.92957500E+0  2.10620400E+0  7.21659500E-3  5.33847200E-6    3
 -7.37763600E-9 2.07561100E-12  9.78601100E+2  1.31521800E+1                   4
! [_ SMILES="CC" _]
! [_ INCHI="INCHI=1/C2H6/C1-2/H1-2H3" _]
! [_ CAS="74-84-0" _]
C2H6              -THERMH   6C   2          G    300.00   5000.00 1384.00      1
  6.10683385E+0  1.29236361E-2 -4.42527196E-6 6.87391726E-10-3.98901732E-14    2
 -1.37500014E+4 -1.30081250E+1 -2.52854344E-2  2.40764754E-2 -1.11893472E-5    3
  2.08340901E-9-5.29868616E-14 -1.12345534E+4  2.11648750E+1                   4
! [_ SMILES="C=C" _]
! [_ INCHI="INCHI=1/C2H4/C1-2/H1-2H2" _]
! [_ CAS="74-85-1" _]
C2H4              121286H   4C   2          G    300.00   5000.00 1000.00      1
  3.52841900E+0  1.14851800E-2 -4.41838500E-6 7.84460100E-10-5.26684800E-14    2
  4.42828900E+3  2.23038900E+0 -8.61488000E-1  2.79616300E-2 -3.38867700E-5    3
  2.78515200E-8-9.73787900E-12  5.57304600E+3  2.42114900E+1                   4
! [_ SMILES="[CH2]C" _]
! [_ INCHI="INCHI=1/C2H5/C1-2/H1H2,2H3" _]
! [_ CAS="2025-56-1" _]
C2H5              -12387H   5C   2          G    300.00   5000.00 1000.00      1
  7.19048000E+0  6.48407700E-3 -6.42806500E-7-2.34787900E-10 3.88087700E-14    2
  1.06745500E+4 -1.47808900E+1  2.69070200E+0  8.71913300E-3  4.41983900E-6    3
 9.33870300E-10-3.92777300E-12  1.28704000E+4  1.21382000E+1                   4
! [_ SMILES="[3CH2]" _]
! [_ INCHI="INCHI=1/CH2/H1H2" _]
! [_ CAS="2465-56-7" _]
! [_ EXCITED_STATE="TRIPLET" _]
CH2               120186H   2C   1          G    250.00   4000.00 1000.00      1
  3.63640800E+0  1.93305700E-3 -1.68701600E-7-1.00989900E-10 1.80825600E-14    2
  4.53413400E+4  2.15656100E+0  3.76223700E+0  1.15981900E-3  2.48958500E-7    3
 8.80083600E-10-7.33243500E-13  4.53679100E+4  1.71257800E+0                   4
! [_ SMILES="[CH]" _]
! [_ INCHI="INCHI=1/CH/H1H" _]
! [_ CAS="3315-37-5" _]
CH                121286H   1C   1          G    300.00   5000.00 1000.00      1
  2.19622300E+0  2.34038100E-3 -7.05820100E-7 9.00758200E-11-3.85504000E-15    2
  7.08672300E+4  9.17837300E+0  3.20020200E+0  2.07287600E-3 -5.13443100E-6    3
  5.73389000E-9-1.95553300E-12  7.04525900E+4  3.33158800E+0                   4
! [_ SMILES="[C]#C" _]
! [_ INCHI="INCHI=1/C2H/C1-2/H1H" _]
! [_ CAS="2122-48-7" _]
C2H               -81193H   1C   2          G    300.00   4000.00 1000.00      1
  3.98636700E+0  3.14312300E-3 -1.26724300E-6 2.92436300E-10-2.71632000E-14    2
  6.65588400E+4  1.19106300E+0  2.73770400E+0  8.04844600E-3 -9.24431000E-6    3
  6.52525900E-9-1.93958000E-12  6.68381300E+4  7.30022000E+0                   4
! [_ SMILES="C#C" _]
! [_ INCHI="INCHI=1/C2H2/C1-2/H1-2H" _]
! [_ CAS="74-86-2" _]
C2H2              121386H   2C   2          G    300.00   5000.00 1000.00      1
  4.43677000E+0  5.37603900E-3 -1.91281700E-6 3.28637900E-10-2.15671000E-14    2
  2.56676600E+4 -2.80033800E+0  2.01356200E+0  1.51904500E-2 -1.61631900E-5    3
  9.07899200E-9-1.91274600E-12  2.61244400E+4  8.80537800E+0                   4
! [_ SMILES="[CH]=C" _]
! [_ INCHI="INCHI=1/C2H3/C1-2/H1H,2H2" _]
! [_ CAS="2669-89-8" _]
C2H3              -12787H   3C   2          G    300.00   5000.00 1000.00      1
  5.93346800E+0  4.01774600E-3 -3.96674000E-7-1.44126700E-10 2.37864400E-14    2
  3.18543500E+4 -8.53031300E+0  2.45927600E+0  7.37147600E-3  2.10987300E-6    3
 -1.32164200E-9-1.18478400E-12  3.33522500E+4  1.15562000E+1                   4
! [_ SMILES="CO" _]
! [_ INCHI="INCHI=1/CH4O/C1-2/H2H,1H3" _]
! [_ CAS="67-56-1" _]
CH3OH             121686O   1H   4C   1     G    300.00   5000.00 1000.00      1
  4.02906100E+0  9.37659300E-3 -3.05025400E-6 4.35879300E-10-2.22472300E-14    2
 -2.61579100E+4  2.37819600E+0  2.66011500E+0  7.34150800E-3  7.17005100E-6    3
 -8.79319400E-9 2.39057000E-12 -2.53534800E+4  1.12326300E+1                   4
! [_ SMILES="[CH2]O" _]
! [_ INCHI="INCHI=1/CH3O/C1-2/H2H,1H2" _]
! [_ CAS="2597-43-5" _]
CH2OH             120186O   1H   3C   1     G    250.00   4000.00 1000.00      1
  6.32752000E+0  3.60827100E-3 -3.20154700E-7-1.93875000E-10 3.50970500E-14    2
 -4.47450900E+3 -8.32936600E+0  2.86262800E+0  1.00152700E-2 -5.28543600E-7    3
 -5.13854000E-9 2.24604100E-12 -3.34967900E+3  1.03979400E+1                   4
! [_ SMILES="C=C=O" _]
! [_ INCHI="INCHI=1/C2H2O/C1-2-3/H1H2" _]
! [_ CAS="463-51-4" _]
CH2CO             121686O   1H   2C   2     G    300.00   5000.00 1000.00      1
  6.03881700E+0  5.80484000E-3 -1.92095400E-6 2.79448500E-10-1.45886800E-14    2
 -8.58340200E+3 -7.65758100E+0  2.97497100E+0  1.21187100E-2 -2.34504600E-6    3
 -6.46668500E-9 3.90564900E-12 -7.63263700E+3  8.67355300E+0                   4
! [_ SMILES="[O]C#C" _]
! [_ INCHI="INCHI=1/C2HO/C1-2-3/H1H" _]
! [_ CAS="51095-15-9" _]
HCCO              -32387O   1H   1C   2     G    300.00   4000.00 1000.00      1
  6.75807300E+0  2.00040000E-3 -2.02760700E-7-1.04113200E-10 1.96516500E-14    2
  1.90151300E+4 -9.07126200E+0  5.04796500E+0  4.45347800E-3  2.26828300E-7    3
 -1.48209500E-9 2.25074200E-13  1.96589200E+4  4.81843900E-1                   4
! [_ SMILES="CCO" _]
! [_ INCHI="INCHI=1/C2H6O/C1-2-3/H3H,2H2,1H3" _]
! [_ CAS="64-17-5" _]
C2H5OH            -THERMO   1H   6C   2     G    300.00   5000.00 1391.00      1
  7.95264841E+0  1.31574144E-2 -4.43693359E-6 6.82201160E-10-3.93096335E-14    2
 -3.23602958E+4 -1.76537972E+1  4.23149045E-1  2.92858167E-2 -1.73845099E-5    3
  5.33639892E-9-6.74917252E-13 -2.95683054E+4  2.33538763E+1                   4
! [_ SMILES="[CH2]CO" _]
! [_ INCHI="INCHI=1/C2H5O/C1-2-3/H3H,1-2H2" _]
! [_ CAS="4422-54-2" _]
PC2H4OH           -THERMO   1H   5C   2     G    300.00   5000.00 1391.00      1
  7.52241939E+0  1.10492715E-2 -3.72576465E-6 5.72827397E-10-3.30061759E-14    2
 -7.29333590E+3 -1.24958732E+1  1.17714711E+0  2.48115685E-2 -1.50299503E-5    3
  4.79006785E-9-6.40994211E-13 -4.95369043E+3  2.20081586E+1                   4
! [_ SMILES="C[CH]O" _]
! [_ INCHI="INCHI=1/C2H5O/C1-2-3/H2-3H,1H3" _]
! [_ CAS="2348-46-1" _]
SC2H4OH           -THERMO   1H   5C   2     G    300.00   5000.00 1392.00      1
  7.83524517E+0  1.08808198E-2 -3.68694127E-6 5.68601361E-10-3.28288951E-14    2
 -1.07534311E+4 -1.53495702E+1  1.91496477E+0  2.45693145E-2 -1.63075399E-5    3
  6.12282361E-9-1.00784363E-12 -8.62161551E+3  1.65987309E+1                   4
! [_ SMILES="C[C]=O" _]
! [_ INCHI="INCHI=1/C2H3O/C1-2-3/H1H3" _]
! [_ CAS="3170-69-2" _]
CH3CO             120186O   1H   3C   2     G    300.00   5000.00 1000.00      1
  5.61227900E+0  8.44988600E-3 -2.85414700E-6 4.23837600E-10-2.26840400E-14    2
 -5.18786300E+3 -3.27494900E+0  3.12527800E+0  9.77822000E-3  4.52144800E-6    3
 -9.00946200E-9 3.19371800E-12 -4.10850800E+3  1.12288500E+1                   4
! [_ SMILES="[CH2]C=O" _]
! [_ INCHI="INCHI=1/C2H3O/C1-2-3/H2H,1H2" _]
! [_ CAS="4400-01-5" _]
CH2CHO            110393O   1H   3C   2     G    300.00   5000.00 1000.00      1
  5.97567000E+0  8.13059100E-3 -2.74362400E-6 4.07030400E-10-2.17601700E-14    2
  4.90321800E+2 -5.04525100E+0  3.40906200E+0  1.07385700E-2  1.89149200E-6    3
 -7.15858300E-9 2.86738500E-12  1.52147700E+3  9.55829000E+0                   4
! [_ SMILES="CC=O" _]
! [_ INCHI="INCHI=1/C2H4O/C1-2-3/H2H,1H3" _]
! [_ CAS="75-07-0" _]
CH3CHO            120186O   1H   4C   2     G    300.00   5000.00 1000.00      1
  5.86865000E+0  1.07942400E-2 -3.64553000E-6 5.41291200E-10-2.89684400E-14    2
 -2.26456900E+4 -6.01294600E+0  2.50569500E+0  1.33699100E-2  4.67195300E-6    3
 -1.12814000E-8 4.26356600E-12 -2.12458900E+4  1.33508900E+1                   4
! [_ SMILES="CC[O]" _]
! [_ INCHI="INCHI=1/C2H5O/C1-2-3/H2H2,1H3" _]
! [_ CAS="2154-50-9" _]
C2H5O             -THERMO   1H   5C   2     G    300.00   5000.00 1389.00      1
  7.87339772E+0  1.13072907E-2 -3.84421421E-6 5.94414105E-10-3.43894538E-14    2
 -6.07274953E+3 -1.73416790E+1  4.94420708E-1  2.71774434E-2 -1.65909010E-5    3
  5.15204200E-9-6.48496915E-13 -3.35252925E+3  2.28079378E+1                   4
! [_ SMILES="CO[O]" _]
! [_ INCHI="INCHI=1/CH3O2/C1-3-2/H1H3" _]
! [_ CAS="2143-58-0" _]
CH3O2             -THERMO   2H   3C   1     G    300.00   5000.00 1385.00      1
  5.95787891E+0  7.90728626E-3 -2.68246234E-6 4.13891337E-10-2.39007330E-14    2
 -1.53574838E+3 -4.71963886E+0  4.26146906E+0  1.00873599E-2 -3.21506184E-6    3
 2.09409267E-10 4.18339103E-14 -6.84394259E+2  5.16330320E+0                   4
! [_ SMILES="CCO[O]" _]
! [_ INCHI="INCHI=1/C2H5O2/C1-2-4-3/H2H2,1H3" _]
C2H5O2            -THERMO   2H   5C   2     G    300.00   5000.00 1382.00      1
  9.48696023E+0  1.24472545E-2 -4.32161576E-6 6.77583033E-10-3.95784568E-14    2
 -7.82481795E+3 -2.30613020E+1  2.26846188E+0  2.76942578E-2 -1.70804106E-5    3
  5.87951878E-9-9.20899069E-13 -5.03880758E+3  1.64773972E+1                   4
! [_ SMILES="COO" _]
! [_ INCHI="INCHI=1/CH4O2/C1-3-2/H2H,1H3" _]
! [_ CAS="3031-73-0" _]
CH3O2H            -THERMO   2H   4C   1     G    300.00   5000.00 1390.00      1
  8.43117091E+0  8.06817909E-3 -2.77094921E-6 4.31332243E-10-2.50692146E-14    2
 -1.96678771E+4 -1.91170629E+1  3.23442817E+0  1.90129767E-2 -1.13386287E-5    3
  3.40306653E-9-4.11830222E-13 -1.77197926E+4  9.25623949E+0                   4
! [_ SMILES="CCOO" _]
! [_ INCHI="INCHI=1/C2H5O2/C1-2-4-3/H3H,2H2,1H3" _]
C2H5O2H           -THERMO   2H   6C   2     G    300.00   5000.00 1383.00      1
  1.19442992E+1  1.26271597E-2 -4.41776755E-6 6.96327353E-10-4.08268961E-14    2
 -2.57408634E+4 -3.73382394E+1  1.29970294E+0  3.65488420E-2 -2.52808875E-5    3
  9.19746803E-9-1.41362233E-12 -2.18866647E+4  2.02719078E+1                   4
! [_ SMILES="[CH]1CO1" _]
! [_ INCHI="INCHI=1/C2H3O/C1-2-3-1/H1H,2H2" _]
! [_ CAS="31586-84-2" _]
C2H3O1-2          -THERMO   1H   3C   2     G    300.00   5000.00 1492.00      1
  6.88486471E+0  6.94720501E-3 -2.23214698E-6 3.32190767E-10-1.87124555E-14    2
  1.26442200E+4 -1.23842570E+1 -1.62965122E+0  2.93455486E-2 -2.43737550E-5    3
  1.00522325E-8-1.61259036E-12  1.52459425E+4  3.22782741E+1                   4
! [_ SMILES="CC(=O)[O]" _]
! [_ INCHI="INCHI=1/C2H4O2/C1-2(3)4/H1H3" _]
! [_ CAS="13799-69-4" _]
CH3CO2            -THERMO   2H   3C   2     G    300.00   5000.00 1395.00      1
  8.54059736E+0  8.32951214E-3 -2.84722010E-6 4.41927196E-10-2.56373394E-14    2
 -2.97290678E+4 -2.03883545E+1  1.37440768E+0  2.49115604E-2 -1.74308894E-5    3
  6.24799508E-9-9.09516835E-13 -2.72330150E+4  1.81405454E+1                   4
! [_ SMILES="C1CO1" _]
! [_ INCHI="INCHI=1/C2H4O/C1-2-3-1/H1-2H2" _]
! [_ CAS="75-21-8" _]
C2H4O1-2          -THERMO   1H   4C   2     G    300.00   5000.00 1399.00      1
  6.99485763E+0  1.00772459E-2 -3.45220932E-6 5.36571216E-10-3.11563543E-14    2
 -1.04091344E+4 -1.59857976E+1 -1.44361790E+0  2.91837107E-2 -1.96805054E-5    3
  6.67472575E-9-9.02139342E-13 -7.43433507E+3  2.95212453E+1                   4
! [_ SMILES="[CH2]COO" _]
! [_ INCHI="INCHI=1/C2H5O2/C1-2-4-3/H3H,1-2H2" _]
C2H4O2H           -THERMO   2H   5C   2     G    300.00   5000.00 1416.00      1
  1.04141161E+1  1.03535418E-2 -3.40802617E-6 5.15328200E-10-2.93443242E-14    2
  9.20494999E+2 -2.27319861E+1  3.54721135E+0  2.68422848E-2 -1.84606216E-5    3
  6.70875659E-9-9.95440617E-13  3.23432979E+3  1.39436666E+1                   4
! [_ SMILES="[O]OCCO" _]
! [_ INCHI="INCHI=1/C2H5O3/C3-1-2-5-4/H3H,1-2H2" _]
! [_ CAS="40135-01-1" _]
O2C2H4OH          -THERMO   3H   5C   2     G    300.00   5000.00 1392.00      1
  1.07432659E+1  1.30957787E-2 -4.45370088E-6 6.88548738E-10-3.98230113E-14    2
 -2.55911274E+4 -2.33254953E+1  4.11839445E+0  2.72240632E-2 -1.60824430E-5    3
  5.17033408E-9-7.31610168E-13 -2.30857785E+4  1.28482112E+1                   4
! [_ SMILES="CC(=O)O[O]" _]
! [_ INCHI="INCHI=1/C2H3O3/C1-2(3)5-4/H1H3" _]
! [_ CAS="88181-73-1" _]
CH3CO3            -THERMO   3H   3C   2     G    300.00   5000.00 1391.00      1
  1.12522498E+1  8.33652672E-3 -2.89014530E-6 4.52781734E-10-2.64354456E-14    2
 -2.60238584E+4 -2.96370457E+1  3.60373432E+0  2.70080341E-2 -2.08293438E-5    3
  8.50541104E-9-1.43846110E-12 -2.34205171E+4  1.12014914E+1                   4
! [_ SMILES="CC(=O)OO" _]
! [_ INCHI="INCHI=1/C2H4O3/C1-2(3)5-4/H4H,1H3" _]
CH3CO3H           -THERMO   3H   4C   2     G    300.00   5000.00 1391.00      1
  1.25060485E+1  9.47789695E-3 -3.30402246E-6 5.19630793E-10-3.04233568E-14    2
 -4.59856703E+4 -3.79195947E+1  2.24135876E+0  3.37963514E-2 -2.53887482E-5    3
  9.67583587E-9-1.49266157E-12 -4.24677831E+4  1.70668133E+1                   4
! [_ SMILES="OOC=O" _]
! [_ INCHI="INCHI=1/CH2O3/C2-1-4-3/H1,3H" _]
HO2CHO            -THERMO   3H   2C   1     G    300.00   5000.00 1378.00      1
  9.87503878E+0  4.64663708E-3 -1.67230522E-6 2.68624413E-10-1.59595232E-14    2
 -3.80502496E+4 -2.24939155E+1  2.42464726E+0  2.19706380E-2 -1.68705546E-5    3
  6.25612194E-9-9.11645843E-13 -3.54828006E+4  1.75027796E+1                   4
! [_ SMILES="[O]OC=O" _]
! [_ INCHI="INCHI=1/CHO3/C2-1-4-3/H1H" _]
O2CHO             -THERMO   3H   1C   1     G    300.00   5000.00 1368.00      1
  7.24075139E+0  4.63312951E-3 -1.63693995E-6 2.59706693E-10-1.52964699E-14    2
 -1.87027618E+4 -6.49547212E+0  3.96059309E+0  1.06002279E-2 -5.25713351E-6    3
  1.01716726E-9-2.87487602E-14 -1.73599383E+4  1.17807483E+1                   4
! [_ SMILES="[O]C=O" _]
! [_ INCHI="INCHI=1/CHO2/C2-1-3/H1H" _]
OCHO              -THERMO   2H   1C   1     G    300.00   5000.00 1690.00      1
  6.12628782E+0  3.75602932E-3 -1.42010352E-6 2.36429200E-10-1.44167651E-14    2
 -2.17698466E+4 -8.01574694E+0  1.35213452E+0  1.50082004E-2 -1.09896141E-5    3
  3.73679840E-9-4.81014498E-13 -2.02253647E+4  1.74373147E+1                   4
! [_ SMILES="[CH2]" _]
! [_ INCHI="INCHI=1/CH2/H1H2" _]
! [_ CAS="2465-56-7" _]
! [_ EXCITED_STATE="SINGLET" _]
CH2(S)            -31287H   2C   1          G    300.00   4000.00 1000.00      1
  3.55288900E+0  2.06678800E-3 -1.91411600E-7-1.10467300E-10 2.02135000E-14    2
  4.98497500E+4  1.68657000E+0  3.97126500E+0 -1.69908900E-4  1.02536900E-6    3
  2.49255100E-9-1.98126600E-12  4.98936800E+4  5.75320700E-2                   4
! [_ SMILES="[O]CO" _]
! [_ INCHI="INCHI=1/CH3O2/C2-1-3/H2H,1H2" _]
HOCH2O            -THERMO   2H   3C   1     G    300.00   5000.00 1452.00      1
  6.39521515E+0  7.43673043E-3 -2.50422354E-6 3.84879712E-10-2.21778689E-14    2
 -2.25557758E+4 -6.63865583E+0  4.11183145E+0  7.53850697E-3  3.77337370E-6    3
 -5.38746005E-9 1.45615887E-12 -2.12471918E+4  7.46807254E+0                   4
! [_ SMILES="OC=O" _]
! [_ INCHI="INCHI=1/CH2O2/C2-1-3/H1-2H" _]
HOCHO             -THERMO   2H   2C   1     G    300.00   5000.00 1376.00      1
  6.68733013E+0  5.14289368E-3 -1.82238513E-6 2.89719163E-10-1.70892199E-14    2
 -4.83995400E+4 -1.13104798E+1  1.43548185E+0  1.63363016E-2 -1.06257421E-5    3
  3.32132977E-9-4.02176103E-13 -4.64616504E+4  1.72885798E+1                   4
! [_ SMILES="[AR]" _]
! [_ INCHI="INCHI=1/AR" _]
! [_ CAS="7440-37-1" _]
AR                120186AR  1               G    300.00   5000.00 1000.00      1
  2.50000000E+0  0.00000000E+0  0.00000000E+0  0.00000000E+0  0.00000000E+0    2
 -7.45375000E+2  4.36600100E+0  2.50000000E+0  0.00000000E+0  0.00000000E+0    3
  0.00000000E+0  0.00000000E+0 -7.45375000E+2  4.36600100E+0                   4
! [_ SMILES="CO[C]=O" _]
! [_ INCHI="INCHI=1/C2H3O2/C1-4-2-3/H1H3" _]
CH3OCO            -THERMO   2H   3C   2     G    300.00   5000.00 2022.00      1
  7.93872241E+0  9.83179392E-3 -3.62304518E-6 5.93018825E-10-3.57358429E-14    2
 -2.72284932E+4 -1.32899508E+1  3.40389162E+0  1.73179494E-2 -6.45033782E-6    3
-4.33768471E-11 3.36254887E-13 -2.54267271E+4  1.20702852E+1                   4
! [_ SMILES="O=[C]C=O" _]
! [_ INCHI="INCHI=1/C2HO2/C3-1-2-4/H1H" _]
HCOCJ*O           -THERMO   2H   1C   2     G    300.00   5000.00 1413.00      1
  9.56248658E+0  2.73668655E-3 -1.00178635E-6 1.62732634E-10-9.74372616E-15    2
 -3.22485394E+3 -2.52197723E+1  3.00486696E-1  2.77038168E-2 -2.66618100E-5    3
  1.20343295E-8-2.08589886E-12 -4.23731341E+2  2.32044967E+1                   4
! [_ SMILES="[CH]=C=O" _]
! [_ INCHI="INCHI=1/C2HO/C1-2-3/H1H" _]
CJ*C*O            -THERMH   1C   2O   1     G    300.00   5000.00 1417.00      1
  5.96870242E+0  3.43099806E-3 -1.09218706E-6 1.61049568E-10-8.99809090E-15    2
  1.86959738E+4 -5.03421013E+0  2.83860668E+0  1.40014884E-2 -1.44973917E-5    3
  7.61160981E-9-1.52955572E-12  1.94604104E+4  1.06249101E+1                   4
! [_ SMILES="O=CC=O" _]
! [_ INCHI="INCHI=1/C2H2O2/C3-1-2-4/H1-2H" _]
! [_ CAS="107-22-2" _]
HCOHCO            -THERMO   2H   2C   2     G    300.00   5000.00 1386.00      1
  9.75438561E+0  4.97645947E-3 -1.74410483E-6 2.75586994E-10-1.61969892E-14    2
 -2.95832896E+4 -2.61878329E+1  1.88105120E+0  2.36386368E-2 -1.83443295E-5    3
  6.84842963E-9-9.92733674E-13 -2.69280190E+4  1.59154793E+1                   4
! [_ SMILES="[O]C(=O)C(=O)O" _]
! [_ INCHI="INCHI=1/C2HO4/C3-1(4)2(5)6/H(H,3,4)/F/H3H" _]
DHCO2J                  O   4H   1C   2     G    300.00   5000.00 1532.00      1
  1.47334267E+1  3.34959530E-3 -1.42099386E-6 2.53086489E-10-1.61179731E-14    2
 -3.72813816E+4 -4.36581652E+1  8.80178445E+0  4.94190735E-3  1.15926744E-5    3
 -1.20950072E-8 3.13319590E-12 -3.39707062E+4 -7.40191130E+0                   4
! [_ SMILES="O[CH]C=O" _]
! [_ INCHI="INCHI=1/C2H3O2/C3-1-2-4/H1-2,4H" _]
C*OCJOH           -THERMO   2H   3C   2     G    300.00   5000.00 1392.00      1
  9.09175069E+0  7.48144292E-3 -2.56404118E-6 3.98657838E-10-2.31543207E-14    2
 -1.97214298E+4 -1.75983974E+1  2.83582077E+0  2.19043873E-2 -1.52705670E-5    3
  5.50365575E-9-8.13969566E-13 -1.75275727E+4  1.60713874E+1                   4
! [_ SMILES="[C]" _]
! [_ INCHI="INCHI=1/C" _]
! [_ CAS="7440-44-0" _]
C                 L11-88C   1               G    200.00   3500.00 1000.00      1
  2.49266888E+0  4.79889284E-5 -7.24335020E-8 3.74291029E-11-4.87277893E-15    2
  8.54512953E+4  4.80150373E+0  2.55423955E+0 -3.21537724E-4  7.33792245E-7    3
-7.32234889E-10 2.66521446E-13  8.54438832E+4  4.53130848E+0                   4
! [_ SMILES="[C]=C" _]
! [_ INCHI="INCHI=1/C2H2/C1-2/H1H2" _]
! [_ CAS="2143-69-3" _]
!---- MCH THERMO STARTS
H2CC              L12-89H   2C   2          G    200.00   6000.00 1000.00      1
  4.27803400E+0  4.75628040E-3 -1.63010090E-6 2.54628060E-10-1.48863790E-14    2
  4.83166880E+4  6.40237010E-1  3.28154830E+0  6.97647910E-3 -2.38552440E-6    3
 -1.21044320E-9 9.81895450E-13  4.86217940E+4  5.92039100E+0                   4
! [_ SMILES="OC#C" _]
! [_ INCHI="INCHI=1/C2H2O/C1-2-3/H1,3H" _]
! [_ CAS="32038-79-2" _]
HCCOH             -SRI91O   1H   2C   2     G    300.00   5000.00 1000.00      1
  5.92382910E+0  6.79236000E-3 -2.56585640E-6 4.49878410E-10-2.99401010E-14    2
  7.26462600E+3 -7.60177420E+0  1.24237330E+0  3.10722010E-2 -5.08668640E-5    3
  4.31371310E-8-1.40145940E-11  8.03161430E+3  1.38743190E+1                   4
! [_ SMILES="[C]=C=O" _]
! [_ INCHI="INCHI=1/C2O/C1-2-3" _]
! [_ CAS="12071-23-7" _]
C2O               121286C   2O   1          G    300.00   5000.00 1000.00      1
  4.84980900E+0  2.94758500E-3 -1.09072900E-6 1.79256200E-10-1.11575800E-14    2
  3.28205500E+4 -6.45322600E-1  3.36885100E+0  8.24180300E-3 -8.76514500E-6    3
  5.56926200E-9-1.54000900E-12  3.31708100E+4  6.71331400E+0                   4
! [_ SMILES="[N]" _]
N                 120186N   1               G    300.00   5000.00 1000.00      1
  2.45026800E+0  1.06614600E-4 -7.46533700E-8 1.87965200E-11-1.02598400E-15    2
  5.61160400E+4  4.44875800E+0  2.50307100E+0 -2.18001800E-5  5.42052900E-8    3
-5.64756000E-11 2.09990400E-14  5.60989000E+4  4.16756600E+0                   4
! [_ SMILES="[NH]" _]
NH                      H   1N   1          G    200.00   6000.00 1000.00      1
  2.78369290E+0  1.32984290E-3 -4.24780470E-7 7.83485040E-11-5.50444700E-15    2
  4.21345140E+4  5.74077980E+0  3.49290840E+0  3.11791970E-4 -1.48904840E-6    3
  2.48164420E-9-1.03569670E-12  4.18942940E+4  1.84832770E+0                   4
! [_ SMILES="[NH2]" _]
NH2               121686H   2N   1          G    300.00   5000.00 1000.00      1
  2.96131100E+0  2.93269900E-3 -9.06360000E-7 1.61725700E-10-1.20420000E-14    2
  2.19197700E+4  5.77787800E+0  3.43249300E+0  3.29954000E-3 -6.61360000E-6    3
  8.59094700E-9-3.57204700E-12  2.17722800E+4  3.09011100E+0                   4
! [_ SMILES="N" _]
NH3               121386N   1H   3          G    300.00   5000.00 1000.00      1
  2.46190400E+0  6.05916600E-3 -2.00497700E-6 3.13600300E-10-1.93831700E-14    2
 -6.49327000E+3  7.47209700E+0  2.20435200E+0  1.01147600E-2 -1.46526500E-5    3
  1.44723500E-8-5.32850900E-12 -6.52548800E+3  8.12713800E+0                   4
! [_ SMILES="[N]=N" _]
NNH               120186H   1N   2          G    250.00   4000.00 1000.00      1
  4.41534200E+0  1.61438800E-3 -1.63289400E-7-8.55984600E-11 1.61479100E-14    2
  2.78802900E+4  9.04288800E-1  3.50134400E+0  2.05358700E-3  7.17041000E-7    3
 4.92134800E-10-9.67117000E-13  2.83334700E+4  6.39183700E+0                   4
! [_ SMILES="[N]=O" _]
NO                RUS-89O   1N   1          G    200.00   6000.00 1000.00      1
  3.26071234E+0  1.19101135E-3 -4.29122646E-7 6.94481463E-11-4.03295681E-15    2
  9.89456954E+3  6.36900469E+0  4.21859896E+0 -4.63988124E-3  1.10443049E-5    3
 -9.34055507E-9 2.80554874E-12  9.81823786E+3  2.28060952E+0                   4
! [_ SMILES="O=[N]=O" _]